<?xml version="1.0" encoding="UTF-8"?>

<!-- generated on 2025-09-01 17:38:29.011073 by randomTrips.py v1_24_0+0000-b72eb3fabc8
<configuration>
    <net-file value="sumo.net.xml"/>
    <route-file value="sumo.rou.xml"/>
    <length value="True"/>
    <end value="50.0"/>
</configuration>
-->

<!-- generated on 2025-09-01 17:38:28 by Eclipse SUMO duarouter Version 1.24.0
<duarouterConfiguration xmlns:xsi="http://www.w3.org/2001/XMLSchema-instance" xsi:noNamespaceSchemaLocation="http://sumo.dlr.de/xsd/duarouterConfiguration.xsd">

    <input>
        <net-file value="sumo.net.xml"/>
        <route-files value="trips.trips.xml"/>
    </input>

    <output>
        <output-file value="sumo.rou.xml"/>
        <alternatives-output value="NUL"/>
    </output>

    <time>
        <begin value="0"/>
        <end value="50.0"/>
    </time>

    <report>
        <no-warnings value="true"/>
        <ignore-errors value="true"/>
        <no-step-log value="true"/>
    </report>

</duarouterConfiguration>
-->

<routes xmlns:xsi="http://www.w3.org/2001/XMLSchema-instance" xsi:noNamespaceSchemaLocation="http://sumo.dlr.de/xsd/routes_file.xsd">
    <vehicle id="0" depart="0.00">
        <route edges="379868358_4 379868358_5"/>
    </vehicle>
    <vehicle id="1" depart="1.00">
        <route edges="1416058053 119753633_2 119753633_4 119753633_5 119753633_6 119753633_7 1200989831 119563230_2"/>
    </vehicle>
    <vehicle id="2" depart="2.00">
        <route edges="119563230_1 119563230_2 1416039836_1 1375194857 119753633_5"/>
    </vehicle>
    <vehicle id="3" depart="3.00">
        <route edges="379868358_1 379868358_2"/>
    </vehicle>
    <vehicle id="4" depart="4.00">
        <route edges="1375194857 119753633_5 119753633_6 119753633_7 119753633_3"/>
    </vehicle>
    <vehicle id="5" depart="5.00">
        <route edges="119563230_2 1416039836_1 1375194857 119753633_5 119753633_6 119753633_7 119753633_3"/>
    </vehicle>
    <vehicle id="6" depart="6.00">
        <route edges="399909357"/>
    </vehicle>
    <vehicle id="7" depart="7.00">
        <route edges="119753633_5 1416058053 119753633_2 1200989832"/>
    </vehicle>
    <vehicle id="8" depart="8.00">
        <route edges="119563230_2 1416039836_1 1375194857 119753633_5 119753633_6 119753633_7 119753633_3 1416039837 119753637_5"/>
    </vehicle>
    <vehicle id="9" depart="9.00">
        <route edges="119753633_1 119753633_2 1200989832"/>
    </vehicle>
    <vehicle id="10" depart="10.00">
        <route edges="1416039836_1 1375194857 119753633_5"/>
    </vehicle>
    <vehicle id="11" depart="11.00">
        <route edges="379868358_1 379868358_2 379868358_4 379868358_5 379868358_3"/>
    </vehicle>
    <vehicle id="12" depart="12.00">
        <route edges="119753633_3 1416039837 119753637_5 119753633_1 119753633_2 119753633_4 119753633_5 119753633_6 119753633_7 1200989831 119563230_2 1416039836_1"/>
    </vehicle>
    <vehicle id="13" depart="13.00">
        <route edges="903257908_2 903257908_3 379868358_5 379868358_3"/>
    </vehicle>
    <vehicle id="14" depart="14.00">
        <route edges="399909357"/>
    </vehicle>
    <vehicle id="15" depart="15.00">
        <route edges="119753633_5 119753633_6 119753633_7 1200989831 119563230_2"/>
    </vehicle>
    <vehicle id="16" depart="16.00">
        <route edges="1200989831"/>
    </vehicle>
    <vehicle id="17" depart="17.00">
        <route edges="1416039836_1 1375194857 119753633_5 119753633_6"/>
    </vehicle>
    <vehicle id="18" depart="18.00">
        <route edges="119563230_2"/>
    </vehicle>
    <vehicle id="19" depart="19.00">
        <route edges="119563230_2 1416039836_1"/>
    </vehicle>
    <vehicle id="20" depart="20.00">
        <route edges="379868358_1 379868358_2"/>
    </vehicle>
    <vehicle id="21" depart="21.00">
        <route edges="119753633_3 1416039837 119753637_5 119753633_1 119753633_2 119753633_4 119753633_5 119753633_6 119753633_7 1200989831 119563230_2 1416039836_1 1416039836_3"/>
    </vehicle>
    <vehicle id="22" depart="22.00">
        <route edges="745194944"/>
    </vehicle>
    <vehicle id="23" depart="23.00">
        <route edges="1257747224_1 1257747224_2 379868358_4 379868358_5 379868358_3"/>
    </vehicle>
    <vehicle id="24" depart="24.00">
        <route edges="119563230_1 119563230_2 1416039836_1 1375194857"/>
    </vehicle>
    <vehicle id="25" depart="25.00">
        <route edges="399909357"/>
    </vehicle>
    <vehicle id="26" depart="26.00">
        <route edges="1416058053 119753633_2 119753633_4 119753633_5"/>
    </vehicle>
    <vehicle id="27" depart="27.00">
        <route edges="119753633_5 119753633_6"/>
    </vehicle>
    <vehicle id="28" depart="28.00">
        <route edges="119753633_5 119753633_6 119753633_7 119753633_3"/>
    </vehicle>
    <vehicle id="29" depart="29.00">
        <route edges="119753633_1 119753633_2 119753633_4 119753633_5 119753633_6 119753633_7 1200989831 119563230_2 1416039836_1 1416039836_3"/>
    </vehicle>
    <vehicle id="30" depart="30.00">
        <route edges="379868358_2 379868358_4 379868358_5"/>
    </vehicle>
    <vehicle id="31" depart="31.00">
        <route edges="1416039836_1 1375194857"/>
    </vehicle>
    <vehicle id="32" depart="32.00">
        <route edges="119753633_3 1416039837 119753637_5 119753633_1 119753633_2 119753633_4 119753633_5 119753633_6 1416058054"/>
    </vehicle>
    <vehicle id="33" depart="33.00">
        <route edges="1416058053 119753633_2 1200989832"/>
    </vehicle>
    <vehicle id="34" depart="34.00">
        <route edges="903257908_3 379868358_5 399909357"/>
    </vehicle>
    <vehicle id="35" depart="35.00">
        <route edges="903257908_2 903257903_1"/>
    </vehicle>
    <vehicle id="36" depart="36.00">
        <route edges="1416039836_1 1375194857 119753633_5 119753633_6 119753633_7 119753633_3 1416039837 119753637_5 119753633_1"/>
    </vehicle>
    <vehicle id="37" depart="37.00">
        <route edges="903257903_2 903257908_2 903257908_3"/>
    </vehicle>
    <vehicle id="38" depart="38.00">
        <route edges="903257908_2 903257908_3 379868358_5 379868358_3"/>
    </vehicle>
    <vehicle id="39" depart="39.00">
        <route edges="119563230_2 1416039836_1 1375194857 119753633_5 1416058053 119753633_2 119753633_4"/>
    </vehicle>
    <vehicle id="40" depart="40.00">
        <route edges="119753633_6 119753633_7 119753633_3"/>
    </vehicle>
    <vehicle id="41" depart="41.00">
        <route edges="119753633_6 119753633_7 1200989831 119563230_2 1416039836_1"/>
    </vehicle>
    <vehicle id="42" depart="42.00">
        <route edges="1257747224_2 379868358_4 379868358_5 399909357"/>
    </vehicle>
    <vehicle id="43" depart="43.00">
        <route edges="903257908_3"/>
    </vehicle>
    <vehicle id="44" depart="44.00">
        <route edges="119563230_2 1416039836_1 1375194857 119753633_5"/>
    </vehicle>
    <vehicle id="45" depart="45.00">
        <route edges="1416039836_1 1375194857 119753633_5 119753633_6 119753633_7 119753633_3"/>
    </vehicle>
    <vehicle id="46" depart="46.00">
        <route edges="399909357"/>
    </vehicle>
    <vehicle id="47" depart="47.00">
        <route edges="119753633_3"/>
    </vehicle>
    <vehicle id="48" depart="48.00">
        <route edges="1416058053 119753633_2 1200989832"/>
    </vehicle>
    <vehicle id="49" depart="49.00">
        <route edges="1416058053 119753633_2 119753633_4 119753633_5 119753633_6 119753633_7 1200989831 119563230_2"/>
    </vehicle>
</routes>
